ProjectFiles/K1/DSSfiles/K1_EXP_VOLTAGES.CSV
Bus, BasekV, Node1, Magnitude1, Angle1, pu1, Node2, Magnitude2, Angle2, pu2, Node3, Magnitude3, Angle3, pu3
"SOURCEBUS", 4.16, 1,    2521.67,    0.0,    1.0499, 2,    2521.57, -120.0,    1.0499, 3,     2521.6,  120.0,    1.0499
"DEV_50011134", 4.16, 1,    2452.53,   -0.9,    1.0211, 0, 0, 0, 0, 0, 0, 0, 0
"DEV_50011135", 4.16, 1,    2452.53,   -0.9,    1.0211, 0, 0, 0, 0, 0, 0, 0, 0
"DEV_50015856", 4.16, 1,    2495.59,   -0.2,    1.0391, 0, 0, 0, 0, 0, 0, 0, 0
"DEV_50015857", 4.16, 1,    2495.59,   -0.2,    1.0391, 0, 0, 0, 0, 0, 0, 0, 0
"DEV_50026561", 4.16, 1,    2454.01,   -0.9,    1.0217, 0, 0, 0, 0, 0, 0, 0, 0
"DEV_50026562", 4.16, 1,    2454.01,   -0.9,    1.0217, 0, 0, 0, 0, 0, 0, 0, 0
"DEV_50026579", 4.16, 3,    2344.71,  116.9,   0.97624, 0, 0, 0, 0, 0, 0, 0, 0
"DEV_50026580", 4.16, 3,    2344.71,  116.9,   0.97624, 0, 0, 0, 0, 0, 0, 0, 0
"DEV_50172", 4.16, 2,     2310.1, -121.8,   0.96183, 0, 0, 0, 0, 0, 0, 0, 0
"DEV_50171", 4.16, 2,     2310.1, -121.8,   0.96183, 0, 0, 0, 0, 0, 0, 0, 0
"DEV_50166", 4.16, 2,    2309.52, -121.8,   0.96159, 0, 0, 0, 0, 0, 0, 0, 0
"DEV_50165", 4.16, 2,    2309.52, -121.8,   0.96159, 0, 0, 0, 0, 0, 0, 0, 0
"DEV_50210", 4.16, 1,    2442.86,   -1.2,    1.0171, 0, 0, 0, 0, 0, 0, 0, 0
"DEV_50213", 4.16, 1,    2442.86,   -1.2,    1.0171, 0, 0, 0, 0, 0, 0, 0, 0
"DEV_50262", 4.16, 3,    2342.42,  116.8,   0.97529, 0, 0, 0, 0, 0, 0, 0, 0
"DEV_50261", 4.16, 3,    2342.42,  116.8,   0.97529, 0, 0, 0, 0, 0, 0, 0, 0
"DEV_50265", 4.16, 3,    2342.42,  116.8,   0.97529, 0, 0, 0, 0, 0, 0, 0, 0
"DEV_50264", 4.16, 3,    2342.42,  116.8,   0.97529, 0, 0, 0, 0, 0, 0, 0, 0
"DEV_51048014", 4.16, 2,    2444.97, -120.7,     1.018, 0, 0, 0, 0, 0, 0, 0, 0
"DEV_51048015", 4.16, 2,    2444.97, -120.7,     1.018, 0, 0, 0, 0, 0, 0, 0, 0
"DEV_51066670", 4.16, 2,    2418.31, -120.8,    1.0069, 0, 0, 0, 0, 0, 0, 0, 0
"DEV_51066671", 4.16, 2,    2418.31, -120.8,    1.0069, 0, 0, 0, 0, 0, 0, 0, 0
"DEV_51066702", 4.16, 1,    2442.59,   -1.2,     1.017, 0, 0, 0, 0, 0, 0, 0, 0
"DEV_51066703", 4.16, 1,    2442.59,   -1.2,     1.017, 0, 0, 0, 0, 0, 0, 0, 0
"DEV_51071430", 4.16, 2,    2365.32, -121.2,   0.98482, 0, 0, 0, 0, 0, 0, 0, 0
"DEV_51071431", 4.16, 2,    2365.32, -121.2,   0.98482, 0, 0, 0, 0, 0, 0, 0, 0
"DEV_51091906", 4.16, 2,    2415.48, -120.9,    1.0057, 0, 0, 0, 0, 0, 0, 0, 0
"DEV_51091907", 4.16, 2,    2415.48, -120.9,    1.0057, 0, 0, 0, 0, 0, 0, 0, 0
"DEV_51121406", 4.16, 1,    2444.28,   -1.3,    1.0177, 0, 0, 0, 0, 0, 0, 0, 0
"DEV_51121407", 4.16, 1,    2444.28,   -1.3,    1.0177, 0, 0, 0, 0, 0, 0, 0, 0
"DEV_63398", 4.16, 3,    2357.47,  117.0,   0.98155, 0, 0, 0, 0, 0, 0, 0, 0
"DEV_63399", 4.16, 3,    2357.47,  117.0,   0.98155, 0, 0, 0, 0, 0, 0, 0, 0
"DEV_63403", 4.16, 3,     2357.8,  117.0,   0.98169, 0, 0, 0, 0, 0, 0, 0, 0
"DEV_63402", 4.16, 3,     2357.8,  117.0,   0.98169, 0, 0, 0, 0, 0, 0, 0, 0
"DEV_63673", 4.16, 2,    2336.81, -121.5,   0.97295, 0, 0, 0, 0, 0, 0, 0, 0
"DEV_63545", 4.16, 2,    2336.81, -121.5,   0.97295, 0, 0, 0, 0, 0, 0, 0, 0
"DEV_63826", 4.16, 3,     2358.5,  117.1,   0.98198, 0, 0, 0, 0, 0, 0, 0, 0
"DEV_63827", 4.16, 3,     2358.5,  117.1,   0.98198, 0, 0, 0, 0, 0, 0, 0, 0
"DEV_64039", 4.16, 1,    2444.36,   -1.3,    1.0177, 0, 0, 0, 0, 0, 0, 0, 0
"DEV_63854", 4.16, 1,    2444.36,   -1.3,    1.0177, 0, 0, 0, 0, 0, 0, 0, 0
"DEV_64297", 4.16, 3,    2336.21,  116.6,    0.9727, 0, 0, 0, 0, 0, 0, 0, 0
"DEV_64050", 4.16, 3,    2336.21,  116.6,    0.9727, 0, 0, 0, 0, 0, 0, 0, 0
"DEV_64299", 4.16, 3,    2335.48,  116.6,    0.9724, 0, 0, 0, 0, 0, 0, 0, 0
"DEV_64054", 4.16, 3,    2335.48,  116.6,    0.9724, 0, 0, 0, 0, 0, 0, 0, 0
"DEV_64060", 4.16, 3,    2335.53,  116.6,   0.97242, 0, 0, 0, 0, 0, 0, 0, 0
"DEV_64058", 4.16, 3,    2335.53,  116.6,   0.97242, 0, 0, 0, 0, 0, 0, 0, 0
"DEV_64158", 4.16, 1,    2444.36,   -1.3,    1.0177, 0, 0, 0, 0, 0, 0, 0, 0
"DEV_64185", 4.16, 1,    2444.36,   -1.3,    1.0177, 0, 0, 0, 0, 0, 0, 0, 0
"DEV_50016592", 4.16, 1,    2443.99,   -1.3,    1.0176, 0, 0, 0, 0, 0, 0, 0, 0
"DEV_50016591", 4.16, 1,    2443.99,   -1.3,    1.0176, 0, 0, 0, 0, 0, 0, 0, 0
"DEV_64244", 4.16, 1,    2439.57,   -1.3,    1.0157, 0, 0, 0, 0, 0, 0, 0, 0
"DEV_64248", 4.16, 1,    2439.57,   -1.3,    1.0157, 0, 0, 0, 0, 0, 0, 0, 0
"DEV_64252", 4.16, 1,    2439.64,   -1.3,    1.0158, 0, 0, 0, 0, 0, 0, 0, 0
"DEV_63855", 4.16, 1,    2439.64,   -1.3,    1.0158, 0, 0, 0, 0, 0, 0, 0, 0
"DEV_64224", 4.16, 1,    2442.55,   -1.3,     1.017, 0, 0, 0, 0, 0, 0, 0, 0
"DEV_64226", 4.16, 1,    2442.55,   -1.3,     1.017, 0, 0, 0, 0, 0, 0, 0, 0
"DEV_64281", 4.16, 1,    2442.34,   -1.3,    1.0169, 0, 0, 0, 0, 0, 0, 0, 0
"DEV_64277", 4.16, 1,    2442.34,   -1.3,    1.0169, 0, 0, 0, 0, 0, 0, 0, 0
"DEV_64144", 4.16, 1,    2443.49,   -1.3,    1.0174, 0, 0, 0, 0, 0, 0, 0, 0
"DEV_64186", 4.16, 1,    2443.49,   -1.3,    1.0174, 0, 0, 0, 0, 0, 0, 0, 0
"DEV_64472", 4.16, 3,    2406.85,  117.8,    1.0021, 0, 0, 0, 0, 0, 0, 0, 0
"DEV_64473", 4.16, 3,    2406.85,  117.8,    1.0021, 0, 0, 0, 0, 0, 0, 0, 0
"DEV_64480", 4.16, 3,    2407.48,  117.8,    1.0024, 0, 0, 0, 0, 0, 0, 0, 0
"DEV_64479", 4.16, 3,    2407.48,  117.8,    1.0024, 0, 0, 0, 0, 0, 0, 0, 0
"DEV_64577", 4.16, 3,    2394.11,  117.5,   0.99681, 0, 0, 0, 0, 0, 0, 0, 0
"DEV_64576", 4.16, 3,    2394.11,  117.5,   0.99681, 0, 0, 0, 0, 0, 0, 0, 0
"DEV_64598", 4.16, 1,       2487,   -0.6,    1.0355, 2,    2394.77, -120.9,   0.99708, 3,    2404.22,  117.7,     1.001
"DEV_64601", 4.16, 1,       2487,   -0.6,    1.0355, 2,    2394.76, -120.9,   0.99708, 3,    2404.23,  117.7,     1.001
"DEV_64623", 4.16, 2,    2365.92, -121.2,   0.98507, 0, 0, 0, 0, 0, 0, 0, 0
"DEV_64622", 4.16, 2,    2365.92, -121.2,   0.98507, 0, 0, 0, 0, 0, 0, 0, 0
"DEV_64823", 4.16, 1,    2486.95,   -0.3,    1.0355, 0, 0, 0, 0, 0, 0, 0, 0
"DEV_64822", 4.16, 1,    2486.95,   -0.3,    1.0355, 0, 0, 0, 0, 0, 0, 0, 0
"DEV_51266982", 4.16, 2,    2424.04, -120.8,    1.0093, 0, 0, 0, 0, 0, 0, 0, 0
"DEV_51266979", 4.16, 2,    2424.04, -120.8,    1.0093, 0, 0, 0, 0, 0, 0, 0, 0
"DEV_64854", 4.16, 2,    2411.34, -121.0,     1.004, 0, 0, 0, 0, 0, 0, 0, 0
"DEV_64853", 4.16, 2,    2411.34, -121.0,     1.004, 0, 0, 0, 0, 0, 0, 0, 0
"DEV_64884", 4.16, 1,    2482.31,   -0.3,    1.0335, 2,    2427.81, -120.9,    1.0108, 3,    2446.79,  118.5,    1.0187
"PRI_64883", 4.16, 1,    2482.31,   -0.3,    1.0335, 2,    2427.81, -120.9,    1.0108, 3,    2446.79,  118.5,    1.0187
"DEV_65232", 4.16, 1,    2482.28,   -0.4,    1.0335, 0, 0, 0, 0, 0, 0, 0, 0
"DEV_65082", 4.16, 1,    2482.28,   -0.4,    1.0335, 0, 0, 0, 0, 0, 0, 0, 0
"DEV_65128", 4.16, 1,    2479.98,   -0.5,    1.0326, 0, 0, 0, 0, 0, 0, 0, 0
"DEV_65129", 4.16, 1,    2479.98,   -0.5,    1.0326, 0, 0, 0, 0, 0, 0, 0, 0
"DEV_64817", 4.16, 1,    2479.99,   -0.5,    1.0326, 0, 0, 0, 0, 0, 0, 0, 0
"DEV_64816", 4.16, 1,    2479.99,   -0.5,    1.0326, 0, 0, 0, 0, 0, 0, 0, 0
"DEV_65052", 4.16, 2,    2400.93, -121.0,   0.99965, 0, 0, 0, 0, 0, 0, 0, 0
"DEV_64814", 4.16, 2,    2400.93, -121.0,   0.99965, 0, 0, 0, 0, 0, 0, 0, 0
"DEV_64818", 4.16, 1,    2479.72,   -0.4,    1.0325, 0, 0, 0, 0, 0, 0, 0, 0
"DEV_64819", 4.16, 1,    2479.72,   -0.4,    1.0325, 0, 0, 0, 0, 0, 0, 0, 0
"DEV_51227346", 4.16, 2,    2416.75, -120.9,    1.0062, 0, 0, 0, 0, 0, 0, 0, 0
"DEV_51227341", 4.16, 2,    2416.75, -120.9,    1.0062, 0, 0, 0, 0, 0, 0, 0, 0
"DEV_65079", 4.16, 1,    2482.54,   -0.4,    1.0336, 0, 0, 0, 0, 0, 0, 0, 0
"DEV_65256", 4.16, 1,    2482.54,   -0.4,    1.0336, 0, 0, 0, 0, 0, 0, 0, 0
"DEV_65240", 4.16, 1,    2482.88,   -0.4,    1.0338, 0, 0, 0, 0, 0, 0, 0, 0
"DEV_65047", 4.16, 1,    2482.88,   -0.4,    1.0338, 0, 0, 0, 0, 0, 0, 0, 0
"DEV_65252", 4.16, 2,    2413.93, -121.0,    1.0051, 0, 0, 0, 0, 0, 0, 0, 0
"DEV_65251", 4.16, 2,    2413.93, -121.0,    1.0051, 0, 0, 0, 0, 0, 0, 0, 0
"DEV_65229", 4.16, 3,    2492.92,  119.4,    1.0379, 0, 0, 0, 0, 0, 0, 0, 0
"DEV_65158", 4.16, 3,    2492.92,  119.4,    1.0379, 0, 0, 0, 0, 0, 0, 0, 0
"DEV_64834", 4.16, 3,    2492.88,  119.4,    1.0379, 0, 0, 0, 0, 0, 0, 0, 0
"DEV_64835", 4.16, 3,    2492.88,  119.4,    1.0379, 0, 0, 0, 0, 0, 0, 0, 0
"DEV_65228", 4.16, 3,    2493.07,  119.4,     1.038, 0, 0, 0, 0, 0, 0, 0, 0
"DEV_65160", 4.16, 3,    2493.07,  119.4,     1.038, 0, 0, 0, 0, 0, 0, 0, 0
"DEV_65336", 4.16, 3,    2433.67,  118.3,    1.0133, 0, 0, 0, 0, 0, 0, 0, 0
"DEV_65335", 4.16, 3,    2433.67,  118.3,    1.0133, 0, 0, 0, 0, 0, 0, 0, 0
"DEV_64295", 4.16, 1,    2439.57,   -1.3,    1.0157, 0, 0, 0, 0, 0, 0, 0, 0
"DEV_64610", 4.16, 1,       2487,   -0.6,    1.0355, 2,    2394.78, -120.9,   0.99709, 3,    2404.22,  117.7,     1.001
"DEV_64600", 4.16, 1,       2487,   -0.6,    1.0355, 2,    2394.75, -120.9,   0.99707, 3,    2404.23,  117.7,     1.001
"NODE_30123245", 4.16, 3,    2344.02,  116.9,   0.97595, 0, 0, 0, 0, 0, 0, 0, 0
"NODE_272059", 4.16, 3,    2343.75,  116.9,   0.97584, 0, 0, 0, 0, 0, 0, 0, 0
"DEV_64114", 4.16, 3,    2344.07,  116.9,   0.97597, 0, 0, 0, 0, 0, 0, 0, 0
"NODE_30126760", 4.16, 1,    2452.59,   -0.9,    1.0212, 2,    2341.95, -121.3,   0.97509, 3,    2349.87,  117.0,   0.97839
"DEV_64072", 4.16, 1,    2452.32,   -0.9,     1.021, 2,    2341.75, -121.3,   0.97501, 3,    2349.64,  117.0,   0.97829
"DEV_50011123", 4.16, 1,    2452.57,   -0.9,    1.0212, 0, 0, 0, 0, 0, 0, 0, 0
"DEV_50011121", 4.16, 1,    2452.57,   -0.9,    1.0211, 0, 0, 0, 0, 0, 0, 0, 0
"DEV_63869", 4.16, 2,    2363.69, -121.2,   0.98414, 0, 0, 0, 0, 0, 0, 0, 0
"DEV_50017188", 4.16, 2,     2362.9, -121.2,   0.98381, 0, 0, 0, 0, 0, 0, 0, 0
"DEV_64122", 4.16, 1,    2454.08,   -0.9,    1.0218, 3,    2345.35,  116.9,   0.97651, 0, 0, 0, 0
"DEV_50026552", 4.16, 1,    2454.06,   -0.9,    1.0218, 0, 0, 0, 0, 0, 0, 0, 0
"DEV_50026573", 4.16, 3,    2345.19,  116.9,   0.97644, 0, 0, 0, 0, 0, 0, 0, 0
"NODE_31158815", 4.16, 1,    2453.88,   -1.0,    1.0217, 0, 0, 0, 0, 0, 0, 0, 0
"DEV_50026603", 4.16, 1,    2453.92,   -1.0,    1.0217, 0, 0, 0, 0, 0, 0, 0, 0
"DEV_50026589", 4.16, 1,     2453.9,   -1.0,    1.0217, 0, 0, 0, 0, 0, 0, 0, 0
"DEV_50026553", 4.16, 1,    2454.06,   -0.9,    1.0218, 0, 0, 0, 0, 0, 0, 0, 0
"DEV_50026576", 4.16, 3,    2345.19,  116.9,   0.97644, 0, 0, 0, 0, 0, 0, 0, 0
"DEV_50150", 4.16, 2,    2311.21, -121.8,   0.96229, 3,    2335.98,  116.5,   0.97261, 0, 0, 0, 0
"DEV_50151", 4.16, 2,    2310.48, -121.8,   0.96199, 3,    2335.78,  116.5,   0.97252, 0, 0, 0, 0
"PRI_50145", 4.16, 2,    2310.48, -121.8,   0.96199, 3,    2335.78,  116.5,   0.97252, 0, 0, 0, 0
"DEV_51042715", 4.16, 1,    2500.76,   -0.2,    1.0412, 2,    2472.34, -120.6,    1.0294, 3,    2488.27,  119.3,     1.036
"NODE_302531", 4.16, 1,    2498.54,   -0.2,    1.0403, 2,    2467.94, -120.6,    1.0275, 3,    2485.19,  119.3,    1.0347
"DEV_59852", 4.16, 1,    2442.81,   -1.2,    1.0171, 2,    2321.09, -121.6,    0.9664, 3,    2334.95,  116.6,   0.97218
"NODE_31154633", 4.16, 1,    2442.71,   -1.2,     1.017, 0, 0, 0, 0, 0, 0, 0, 0
"DEV_51066697", 4.16, 1,     2442.7,   -1.2,     1.017, 0, 0, 0, 0, 0, 0, 0, 0
"DEV_51066699", 4.16, 1,     2442.7,   -1.2,     1.017, 0, 0, 0, 0, 0, 0, 0, 0
"DEV_51079296", 4.16, 3,    2394.39,  117.5,   0.99693, 0, 0, 0, 0, 0, 0, 0, 0
"NODE_229056", 4.16, 3,    2394.21,  117.5,   0.99685, 0, 0, 0, 0, 0, 0, 0, 0
"DEV_65288", 4.16, 1,    2482.77,   -0.3,    1.0337, 2,    2427.67, -120.9,    1.0108, 3,    2446.87,  118.5,    1.0188
"NODE_31205742", 4.16, 1,    2482.31,   -0.3,    1.0335, 2,    2427.81, -120.9,    1.0108, 3,    2446.79,  118.5,    1.0187
"NODE_228687", 4.16, 1,    2443.16,   -1.2,    1.0172, 2,    2323.52, -121.6,   0.96742, 3,    2335.41,  116.6,   0.97237
"NODE_10002245", 4.16, 1,    2443.52,   -1.2,    1.0174, 2,    2325.23, -121.6,   0.96813, 3,    2335.73,  116.6,    0.9725
"DEV_59857", 4.16, 1,    2443.37,   -1.2,    1.0173, 2,    2324.53, -121.6,   0.96784, 3,    2335.62,  116.6,   0.97245
"DEV_59860", 4.16, 1,    2442.77,   -1.2,    1.0171, 2,    2319.78, -121.7,   0.96586, 3,    2334.86,  116.6,   0.97214
"NODE_12001288", 4.16, 2,    2311.27, -121.8,   0.96232, 3,       2336,  116.5,   0.97261, 0, 0, 0, 0
"NODE_228693", 4.16, 1,    2441.94,   -1.2,    1.0167, 2,    2311.51, -121.8,   0.96242, 3,    2336.07,  116.6,   0.97264
"DEV_59845", 4.16, 1,    2443.15,   -1.2,    1.0172, 0, 0, 0, 0, 0, 0, 0, 0
"DEV_59840", 4.16, 1,    2443.14,   -1.2,    1.0172, 0, 0, 0, 0, 0, 0, 0, 0
"DEV_50176", 4.16, 2,    2311.43, -121.8,   0.96238, 0, 0, 0, 0, 0, 0, 0, 0
"DEV_50155", 4.16, 2,    2311.38, -121.8,   0.96236, 0, 0, 0, 0, 0, 0, 0, 0
"NODE_30107673", 4.16, 1,    2441.94,   -1.2,    1.0167, 2,    2311.52, -121.8,   0.96242, 3,    2336.07,  116.6,   0.97264
"NODE_10049044", 4.16, 1,    2520.85,    0.0,    1.0496, 2,    2514.92, -120.0,    1.0471, 3,    2516.85,  119.9,    1.0479
"DEV_63225", 4.16, 1,    2521.44,    0.0,    1.0498, 2,    2516.21, -120.0,    1.0476, 3,    2517.69,  119.9,    1.0483
"DEV_63857", 4.16, 1,    2465.21,   -0.8,    1.0264, 2,    2355.41, -121.2,   0.98069, 3,    2366.72,  117.2,   0.98541
"DEV_64149", 4.16, 1,    2461.93,   -0.8,     1.025, 2,    2351.16, -121.2,   0.97893, 3,    2360.61,  117.1,   0.98286
"DEV_64310", 4.16, 1,    2462.02,   -0.8,    1.0251, 2,    2351.07, -121.2,   0.97889, 3,    2360.24,  117.1,    0.9827
"DEV_64004", 4.16, 1,    2457.63,   -0.9,    1.0233, 2,    2346.65, -121.2,   0.97705, 3,    2355.35,  117.0,   0.98067
"DEV_63875", 4.16, 3,    2359.48,  117.1,   0.98239, 0, 0, 0, 0, 0, 0, 0, 0
"TIE_272144", 4.16, 1,    2462.32,   -0.8,    1.0252, 2,    2350.93, -121.2,   0.97883, 3,    2359.51,  117.1,    0.9824
"DEV_63873", 4.16, 3,    2359.46,  117.1,   0.98238, 0, 0, 0, 0, 0, 0, 0, 0
"NODE_10002231", 4.16, 2,    2364.03, -121.2,   0.98428, 0, 0, 0, 0, 0, 0, 0, 0
"DEV_64124", 4.16, 1,    2454.07,   -0.9,    1.0218, 3,     2346.5,  116.9,   0.97698, 0, 0, 0, 0
"DEV_64120", 4.16, 3,    2343.66,  116.9,    0.9758, 0, 0, 0, 0, 0, 0, 0, 0
"DEV_64121", 4.16, 3,    2343.19,  116.8,   0.97561, 0, 0, 0, 0, 0, 0, 0, 0
"DEV_64012", 4.16, 3,    2343.17,  116.8,    0.9756, 0, 0, 0, 0, 0, 0, 0, 0
"DEV_64013", 4.16, 3,    2343.15,  116.8,   0.97559, 0, 0, 0, 0, 0, 0, 0, 0
"NODE_272423", 4.16, 1,    2444.47,   -1.3,    1.0178, 2,    2333.32, -121.5,    0.9715, 3,    2339.01,  116.7,   0.97387
"NODE_272425", 4.16, 1,    2444.62,   -1.3,    1.0178, 2,    2334.85, -121.5,   0.97214, 3,    2340.23,  116.7,   0.97438
"DEV_64157", 4.16, 1,    2444.46,   -1.3,    1.0178, 0, 0, 0, 0, 0, 0, 0, 0
"NODE_272419", 4.16, 1,    2444.35,   -1.2,    1.0177, 2,     2329.2, -121.5,   0.96978, 3,    2336.37,  116.6,   0.97277
"DEV_64044", 4.16, 1,    2444.49,   -1.3,    1.0178, 2,    2331.12, -121.5,   0.97058, 3,    2337.36,  116.6,   0.97318
"DEV_64047", 4.16, 3,    2336.32,  116.6,   0.97275, 0, 0, 0, 0, 0, 0, 0, 0
"DEV_64063", 4.16, 3,    2336.32,  116.6,   0.97275, 0, 0, 0, 0, 0, 0, 0, 0
"DEV_64065", 4.16, 1,     2443.8,   -1.2,    1.0175, 2,    2326.56, -121.6,   0.96868, 3,    2335.94,  116.6,   0.97259
"DEV_64126", 4.16, 1,    2454.16,   -0.9,    1.0218, 2,    2342.29, -121.3,   0.97523, 3,    2349.85,  117.0,   0.97838
"DEV_64128", 4.16, 1,    2454.06,   -0.9,    1.0218, 2,    2341.65, -121.3,   0.97496, 3,    2348.79,  117.0,   0.97794
"DEV_64125", 4.16, 1,    2454.05,   -0.9,    1.0218, 2,    2341.49, -121.2,    0.9749, 3,    2347.58,  116.9,   0.97744
"DEV_63947", 4.16, 1,    2453.63,   -1.0,    1.0216, 0, 0, 0, 0, 0, 0, 0, 0
"DEV_64081", 4.16, 1,    2444.62,   -1.3,    1.0178, 2,    2334.85, -121.5,   0.97214, 3,    2340.23,  116.7,   0.97438
"DEV_64098", 4.16, 1,    2444.84,   -1.3,    1.0179, 2,    2337.11, -121.5,   0.97308, 3,    2342.04,  116.7,   0.97513
"NODE_30051728", 4.16, 1,    2462.16,   -0.8,    1.0251, 2,    2351.01, -121.2,   0.97886, 3,     2359.9,  117.1,   0.98256
"DEV_64184", 4.16, 1,    2444.46,   -1.3,    1.0178, 0, 0, 0, 0, 0, 0, 0, 0
"NODE_297599", 4.16, 1,    2442.43,   -1.3,    1.0169, 0, 0, 0, 0, 0, 0, 0, 0
"DEV_64234", 4.16, 1,    2442.43,   -1.3,    1.0169, 0, 0, 0, 0, 0, 0, 0, 0
"DEV_64237", 4.16, 1,    2442.49,   -1.3,     1.017, 0, 0, 0, 0, 0, 0, 0, 0
"NODE_272429", 4.16, 1,    2441.25,   -1.3,    1.0164, 0, 0, 0, 0, 0, 0, 0, 0
"DEV_64241", 4.16, 1,    2440.11,   -1.3,     1.016, 0, 0, 0, 0, 0, 0, 0, 0
"NODE_272431", 4.16, 1,    2440.12,   -1.3,     1.016, 0, 0, 0, 0, 0, 0, 0, 0
"DEV_64250", 4.16, 1,    2440.11,   -1.3,     1.016, 0, 0, 0, 0, 0, 0, 0, 0
"DEV_64271", 4.16, 1,    2439.28,   -1.3,    1.0156, 0, 0, 0, 0, 0, 0, 0, 0
"DEV_64257", 4.16, 1,     2439.2,   -1.3,    1.0156, 0, 0, 0, 0, 0, 0, 0, 0
"DEV_64260", 4.16, 1,    2439.18,   -1.3,    1.0156, 0, 0, 0, 0, 0, 0, 0, 0
"NODE_272459", 4.16, 1,    2439.05,   -1.3,    1.0155, 0, 0, 0, 0, 0, 0, 0, 0
"NODE_272461", 4.16, 1,    2438.91,   -1.3,    1.0155, 0, 0, 0, 0, 0, 0, 0, 0
"DEV_64263", 4.16, 1,     2438.7,   -1.3,    1.0154, 0, 0, 0, 0, 0, 0, 0, 0
"DEV_64270", 4.16, 1,    2438.68,   -1.3,    1.0154, 0, 0, 0, 0, 0, 0, 0, 0
"DEV_51044932", 4.16, 1,    2437.79,   -1.3,     1.015, 0, 0, 0, 0, 0, 0, 0, 0
"DEV_64268", 4.16, 1,    2437.67,   -1.3,    1.0149, 0, 0, 0, 0, 0, 0, 0, 0
"DEV_64269", 4.16, 1,     2437.2,   -1.3,    1.0148, 0, 0, 0, 0, 0, 0, 0, 0
"DEV_64264", 4.16, 1,    2438.64,   -1.3,    1.0153, 0, 0, 0, 0, 0, 0, 0, 0
"DEV_64389", 4.16, 1,    2454.27,   -0.9,    1.0219, 2,    2343.05, -121.3,   0.97555, 3,    2351.11,  117.0,    0.9789
"NODE_30113351", 4.16, 1,     2454.3,   -0.9,    1.0219, 2,    2343.14, -121.3,   0.97559, 3,    2351.27,  117.0,   0.97897
"DEV_64109", 4.16, 3,    2344.07,  116.9,   0.97597, 0, 0, 0, 0, 0, 0, 0, 0
"DEV_64490", 4.16, 1,    2469.17,   -0.8,    1.0281, 2,    2360.53, -121.1,   0.98283, 3,     2374.1,  117.3,   0.98848
"NODE_228982", 4.16, 1,       2477,   -0.7,    1.0313, 2,    2370.65, -121.1,   0.98704, 3,     2388.7,  117.4,   0.99456
"DEV_64492", 4.16, 1,    2482.26,   -0.7,    1.0335, 2,    2381.81, -121.0,   0.99169, 3,    2395.09,  117.5,   0.99721
"DEV_64587", 4.16, 1,    2486.84,   -0.6,    1.0354, 2,    2390.61, -120.9,   0.99535, 3,    2400.25,  117.6,   0.99937
"DEV_64568", 4.16, 1,    2476.98,   -0.7,    1.0313, 2,    2370.53, -121.1,   0.98699, 3,    2388.75,  117.4,   0.99458
"DEV_64489", 4.16, 1,    2476.84,   -0.7,    1.0313, 2,    2369.86, -121.1,   0.98671, 3,       2389,  117.4,   0.99468
"DEV_64597", 4.16, 3,    2397.58,  117.5,   0.99825, 0, 0, 0, 0, 0, 0, 0, 0
"DEV_64573", 4.16, 3,    2396.28,  117.5,   0.99771, 0, 0, 0, 0, 0, 0, 0, 0
"DEV_64572", 4.16, 3,     2394.6,  117.5,   0.99701, 0, 0, 0, 0, 0, 0, 0, 0
"NODE_229035", 4.16, 3,    2394.55,  117.5,   0.99699, 0, 0, 0, 0, 0, 0, 0, 0
"DEV_64571", 4.16, 3,    2394.41,  117.5,   0.99693, 0, 0, 0, 0, 0, 0, 0, 0
"DEV_64549", 4.16, 1,    2487.28,   -0.6,    1.0356, 2,    2390.39, -120.9,   0.99526, 3,    2399.19,  117.6,   0.99892
"DEV_64488", 4.16, 2,    2364.26, -121.2,   0.98438, 0, 0, 0, 0, 0, 0, 0, 0
"DEV_64612", 4.16, 2,    2365.96, -121.2,   0.98509, 0, 0, 0, 0, 0, 0, 0, 0
"DEV_64574", 4.16, 3,     2394.2,  117.5,   0.99684, 0, 0, 0, 0, 0, 0, 0, 0
"DEV_64581", 4.16, 3,    2394.19,  117.5,   0.99684, 0, 0, 0, 0, 0, 0, 0, 0
"DEV_64589", 4.16, 1,    2487.14,   -0.6,    1.0355, 2,    2391.45, -120.9,    0.9957, 3,     2400.9,  117.6,   0.99963
"DEV_64628", 4.16, 2,    2365.87, -121.2,   0.98505, 0, 0, 0, 0, 0, 0, 0, 0
"DEV_64624", 4.16, 2,    2365.94, -121.2,   0.98508, 0, 0, 0, 0, 0, 0, 0, 0
"DEV_65519", 4.16, 1,    2504.72,   -0.2,    1.0429, 2,    2480.44, -120.5,    1.0328, 3,    2493.52,  119.4,    1.0382
"DEV_65048", 4.16, 3,    2493.51,  119.4,    1.0382, 0, 0, 0, 0, 0, 0, 0, 0
"DEV_65049", 4.16, 3,     2493.5,  119.4,    1.0382, 0, 0, 0, 0, 0, 0, 0, 0
"DEV_64867", 4.16, 3,    2485.19,  119.3,    1.0347, 0, 0, 0, 0, 0, 0, 0, 0
"DEV_64868", 4.16, 2,    2467.57, -120.6,    1.0274, 0, 0, 0, 0, 0, 0, 0, 0
"DEV_64869", 4.16, 1,    2498.32,   -0.2,    1.0402, 0, 0, 0, 0, 0, 0, 0, 0
"DEV_65322", 4.16, 1,    2494.83,   -0.2,    1.0387, 2,    2458.17, -120.7,    1.0235, 3,    2476.34,  119.1,     1.031
"NODE_303482", 4.16, 1,    2490.98,   -0.3,    1.0371, 2,    2448.28, -120.8,    1.0194, 3,    2466.79,  118.9,    1.0271
"DEV_51288345", 4.16, 1,    2485.85,   -0.3,     1.035, 2,     2435.1, -120.9,    1.0139, 3,    2454.09,  118.7,    1.0218
"NODE_302552", 4.16, 1,    2482.94,   -0.3,    1.0338, 2,    2427.62, -120.9,    1.0108, 3,     2446.9,  118.5,    1.0188
"NODE_302614", 4.16, 1,    2478.89,   -0.4,    1.0321, 2,    2415.44, -121.0,    1.0057, 3,    2435.57,  118.3,    1.0141
"DEV_64881", 4.16, 1,     2482.9,   -0.3,    1.0338, 2,    2427.63, -120.9,    1.0108, 3,     2446.9,  118.5,    1.0188
"DEV_65236", 4.16, 1,    2478.77,   -0.4,    1.0321, 2,    2415.08, -121.0,    1.0055, 3,     2435.3,  118.3,     1.014
"DEV_64893", 4.16, 3,    2435.49,  118.3,     1.014, 0, 0, 0, 0, 0, 0, 0, 0
"DEV_64909", 4.16, 1,    2478.89,   -0.4,    1.0321, 2,    2415.44, -121.0,    1.0057, 3,    2435.57,  118.3,    1.0141
"NODE_31206673", 4.16, 1,    2507.44,   -0.1,     1.044, 2,    2486.23, -120.4,    1.0352, 3,    2497.46,  119.5,    1.0398
"DEV_65517", 4.16, 1,    2518.14,    0.0,    1.0484, 2,    2509.05, -120.1,    1.0447, 3,    2513.03,  119.8,    1.0463
"TIE_228948", 4.16, 3,    2406.89,  117.8,    1.0021, 0, 0, 0, 0, 0, 0, 0, 0
"TIE_228950", 4.16, 3,    2406.89,  117.8,    1.0021, 0, 0, 0, 0, 0, 0, 0, 0
"TIE_244804", 4.16, 2,    2401.02, -121.0,   0.99969, 0, 0, 0, 0, 0, 0, 0, 0
"TIE_244808", 4.16, 1,     2482.9,   -0.5,    1.0338, 2,    2401.02, -121.0,   0.99969, 3,    2414.79,  117.9,    1.0054
"DEV_50011138", 4.16, 1,    2452.54,   -0.9,    1.0211, 0, 0, 0, 0, 0, 0, 0, 0
"DEV_50011141", 4.16, 1,    2452.54,   -0.9,    1.0211, 0, 0, 0, 0, 0, 0, 0, 0
"NODE_30134821", 4.16, 1,    2454.02,   -0.9,    1.0218, 0, 0, 0, 0, 0, 0, 0, 0
"NODE_31158821", 4.16, 1,    2454.03,   -0.9,    1.0218, 0, 0, 0, 0, 0, 0, 0, 0
"DEV_50026609", 4.16, 1,    2453.98,   -0.9,    1.0217, 0, 0, 0, 0, 0, 0, 0, 0
"NODE_30134832", 4.16, 3,    2344.76,  116.9,   0.97626, 0, 0, 0, 0, 0, 0, 0, 0
"NODE_30134833", 4.16, 3,    2344.73,  116.9,   0.97625, 0, 0, 0, 0, 0, 0, 0, 0
"DEV_50026626", 4.16, 3,    2344.45,  116.9,   0.97613, 0, 0, 0, 0, 0, 0, 0, 0
"NODE_31147210", 4.16, 3,    2344.15,  116.9,     0.976, 0, 0, 0, 0, 0, 0, 0, 0
"NODE_31147209", 4.16, 3,    2344.15,  116.9,   0.97601, 0, 0, 0, 0, 0, 0, 0, 0
"DEV_50026621", 4.16, 3,    2344.48,  116.9,   0.97615, 0, 0, 0, 0, 0, 0, 0, 0
"DEV_50026606", 4.16, 1,    2453.99,   -0.9,    1.0217, 0, 0, 0, 0, 0, 0, 0, 0
"NODE_30135727", 4.16, 1,    2479.86,   -0.4,    1.0325, 0, 0, 0, 0, 0, 0, 0, 0
"DEV_65046", 4.16, 1,    2479.72,   -0.4,    1.0325, 0, 0, 0, 0, 0, 0, 0, 0
"NODE_30106597", 4.16, 2,    2310.06, -121.8,   0.96181, 0, 0, 0, 0, 0, 0, 0, 0
"NODE_30106617", 4.16, 2,    2310.32, -121.8,   0.96192, 0, 0, 0, 0, 0, 0, 0, 0
"NODE_30106590", 4.16, 2,    2310.66, -121.8,   0.96206, 0, 0, 0, 0, 0, 0, 0, 0
"NODE_30107671", 4.16, 2,    2311.37, -121.8,   0.96236, 0, 0, 0, 0, 0, 0, 0, 0
"NODE_30107677", 4.16, 2,    2311.36, -121.8,   0.96235, 0, 0, 0, 0, 0, 0, 0, 0
"NODE_30113328", 4.16, 2,    2310.05, -121.8,   0.96181, 0, 0, 0, 0, 0, 0, 0, 0
"DEV_50157", 4.16, 2,    2309.92, -121.8,   0.96176, 0, 0, 0, 0, 0, 0, 0, 0
"NODE_30113329", 4.16, 2,    2309.91, -121.8,   0.96175, 0, 0, 0, 0, 0, 0, 0, 0
"DEV_50158", 4.16, 2,    2309.79, -121.8,    0.9617, 0, 0, 0, 0, 0, 0, 0, 0
"NODE_30106616", 4.16, 2,     2310.2, -121.8,   0.96187, 0, 0, 0, 0, 0, 0, 0, 0
"NODE_10002241", 4.16, 1,    2442.93,   -1.2,    1.0171, 0, 0, 0, 0, 0, 0, 0, 0
"NODE_10002242", 4.16, 1,    2442.94,   -1.2,    1.0171, 0, 0, 0, 0, 0, 0, 0, 0
"NODE_10002243", 4.16, 1,    2443.03,   -1.2,    1.0172, 0, 0, 0, 0, 0, 0, 0, 0
"NODE_30117678", 4.16, 3,     2342.9,  116.8,   0.97549, 0, 0, 0, 0, 0, 0, 0, 0
"NODE_30122102", 4.16, 3,    2342.96,  116.8,   0.97551, 0, 0, 0, 0, 0, 0, 0, 0
"NODE_31143048", 4.16, 3,    2357.82,  117.0,    0.9817, 0, 0, 0, 0, 0, 0, 0, 0
"NODE_31154622", 4.16, 2,    2418.48, -120.8,     1.007, 0, 0, 0, 0, 0, 0, 0, 0
"NODE_31154623", 4.16, 2,    2418.15, -120.8,    1.0068, 0, 0, 0, 0, 0, 0, 0, 0
"DEV_51066785", 4.16, 1,    2442.66,   -1.2,     1.017, 0, 0, 0, 0, 0, 0, 0, 0
"DEV_51066787", 4.16, 1,    2442.65,   -1.2,     1.017, 0, 0, 0, 0, 0, 0, 0, 0
"DEV_64627", 4.16, 2,    2365.51, -121.2,    0.9849, 0, 0, 0, 0, 0, 0, 0, 0
"NODE_31171046", 4.16, 2,    2415.86, -120.9,    1.0059, 0, 0, 0, 0, 0, 0, 0, 0
"NODE_30105657", 4.16, 2,     2416.6, -120.9,    1.0062, 0, 0, 0, 0, 0, 0, 0, 0
"NODE_31171047", 4.16, 2,    2415.05, -120.9,    1.0055, 0, 0, 0, 0, 0, 0, 0, 0
"NODE_31186548", 4.16, 1,    2483.04,   -0.3,    1.0338, 0, 0, 0, 0, 0, 0, 0, 0
"DEV_64825", 4.16, 1,    2486.95,   -0.3,    1.0355, 0, 0, 0, 0, 0, 0, 0, 0
"NODE_31188258", 4.16, 1,    2444.32,   -1.3,    1.0177, 0, 0, 0, 0, 0, 0, 0, 0
"NODE_31188259", 4.16, 1,    2444.22,   -1.3,    1.0177, 0, 0, 0, 0, 0, 0, 0, 0
"NODE_31196478", 4.16, 3,    2358.98,  117.1,   0.98218, 0, 0, 0, 0, 0, 0, 0, 0
"NODE_31200057", 4.16, 1,    2443.27,   -1.3,    1.0173, 0, 0, 0, 0, 0, 0, 0, 0
"NODE_272298", 4.16, 2,    2339.24, -121.4,   0.97396, 0, 0, 0, 0, 0, 0, 0, 0
"DEV_51259011", 4.16, 2,    2339.24, -121.4,   0.97396, 0, 0, 0, 0, 0, 0, 0, 0
"NODE_10002244", 4.16, 1,    2443.09,   -1.2,    1.0172, 0, 0, 0, 0, 0, 0, 0, 0
"NODE_5113412250", 4.16, 1,    2521.66,    0.0,    1.0499, 2,    2521.55, -120.0,    1.0499, 3,    2521.61,  120.0,    1.0499
"BLACK_PT", 4.16, 1,    2521.66,    0.0,    1.0499, 2,    2521.55, -120.0,    1.0499, 3,    2521.61,  120.0,    1.0499
"HUNAKAI", 4.16, 1,    2521.66,    0.0,    1.0499, 2,    2521.55, -120.0,    1.0499, 3,    2521.61,  120.0,    1.0499
"KAHALA", 4.16, 1,    2521.65,    0.0,    1.0499, 2,    2521.52, -120.0,    1.0499, 3,    2521.61,  120.0,    1.0499
"NODE_274712", 4.16, 3,    2357.81,  117.0,   0.98169, 0, 0, 0, 0, 0, 0, 0, 0
"NODE_10002253", 4.16, 3,    2357.86,  117.0,   0.98171, 0, 0, 0, 0, 0, 0, 0, 0
"NODE_274689", 4.16, 2,    2337.97, -121.4,   0.97343, 0, 0, 0, 0, 0, 0, 0, 0
"DEV_63548", 4.16, 2,    2337.97, -121.4,   0.97343, 0, 0, 0, 0, 0, 0, 0, 0
"NODE_10002251", 4.16, 2,     2338.6, -121.4,    0.9737, 0, 0, 0, 0, 0, 0, 0, 0
"NODE_272128", 4.16, 3,    2358.52,  117.1,   0.98199, 0, 0, 0, 0, 0, 0, 0, 0
"NODE_272131", 4.16, 3,    2358.53,  117.1,   0.98199, 0, 0, 0, 0, 0, 0, 0, 0
"DEV_64018", 4.16, 1,    2449.36,   -1.1,    1.0198, 2,    2339.84, -121.4,   0.97421, 3,    2347.01,  116.9,    0.9772
"NODE_272167", 4.16, 1,    2450.91,   -1.0,    1.0205, 2,    2340.84, -121.3,   0.97463, 3,    2348.39,  116.9,   0.97777
"NODE_272294", 4.16, 2,    2339.61, -121.4,   0.97411, 0, 0, 0, 0, 0, 0, 0, 0
"DEV_64021", 4.16, 2,    2339.61, -121.4,   0.97411, 0, 0, 0, 0, 0, 0, 0, 0
"DEV_51259074", 4.16, 2,    2339.24, -121.4,   0.97396, 0, 0, 0, 0, 0, 0, 0, 0
"DEV_64027", 4.16, 2,    2338.93, -121.4,   0.97384, 0, 0, 0, 0, 0, 0, 0, 0
"DEV_64182", 4.16, 2,    2338.93, -121.4,   0.97384, 0, 0, 0, 0, 0, 0, 0, 0
"NODE_272264", 4.16, 1,    2449.27,   -1.1,    1.0198, 2,    2339.79, -121.4,   0.97419, 3,    2346.92,  116.9,   0.97716
"NODE_272262", 4.16, 1,    2447.93,   -1.1,    1.0192, 2,    2339.05, -121.4,   0.97388, 3,     2345.5,  116.8,   0.97657
"DEV_64032", 4.16, 1,    2449.27,   -1.1,    1.0198, 0, 0, 0, 0, 0, 0, 0, 0
"NODE_272260", 4.16, 1,    2447.72,   -1.1,    1.0191, 2,    2338.96, -121.4,   0.97385, 3,    2345.34,  116.8,    0.9765
"DEV_51191231", 4.16, 3,    2348.39,  116.9,   0.97777, 0, 0, 0, 0, 0, 0, 0, 0
"NODE_297629", 4.16, 3,    2336.13,  116.6,   0.97267, 0, 0, 0, 0, 0, 0, 0, 0
"DEV_64083", 4.16, 1,    2444.44,   -1.3,    1.0178, 0, 0, 0, 0, 0, 0, 0, 0
"NODE_297571", 4.16, 1,    2444.56,   -1.3,    1.0178, 0, 0, 0, 0, 0, 0, 0, 0
"NODE_12001289", 4.16, 1,    2444.41,   -1.3,    1.0178, 0, 0, 0, 0, 0, 0, 0, 0
"DEV_64276", 4.16, 1,    2444.32,   -1.3,    1.0177, 0, 0, 0, 0, 0, 0, 0, 0
"NODE_297612", 4.16, 1,    2444.76,   -1.3,    1.0179, 2,    2337.33, -121.5,   0.97317, 3,    2342.22,  116.7,    0.9752
"DEV_64034", 4.16, 1,    2447.93,   -1.1,    1.0192, 2,    2339.05, -121.4,   0.97388, 3,    2345.51,  116.8,   0.97657
"DEV_50014864", 4.16, 1,    2447.72,   -1.1,    1.0191, 0, 0, 0, 0, 0, 0, 0, 0
"NODE_30062336", 4.16, 1,    2444.34,   -1.3,    1.0177, 0, 0, 0, 0, 0, 0, 0, 0
"NODE_30062369", 4.16, 1,     2444.4,   -1.3,    1.0177, 0, 0, 0, 0, 0, 0, 0, 0
"NODE_297580", 4.16, 1,    2444.01,   -1.3,    1.0176, 0, 0, 0, 0, 0, 0, 0, 0
"NODE_10001068", 4.16, 1,    2442.88,   -1.3,    1.0171, 0, 0, 0, 0, 0, 0, 0, 0
"NODE_10026083", 4.16, 1,     2443.9,   -1.3,    1.0175, 0, 0, 0, 0, 0, 0, 0, 0
"DEV_64222", 4.16, 1,    2443.65,   -1.3,    1.0174, 0, 0, 0, 0, 0, 0, 0, 0
"DEV_64228", 4.16, 1,    2442.41,   -1.3,    1.0169, 0, 0, 0, 0, 0, 0, 0, 0
"NODE_10026096", 4.16, 1,    2442.36,   -1.3,    1.0169, 0, 0, 0, 0, 0, 0, 0, 0
"NODE_297593", 4.16, 1,    2442.36,   -1.3,    1.0169, 0, 0, 0, 0, 0, 0, 0, 0
"DEV_64217", 4.16, 1,    2442.36,   -1.3,    1.0169, 0, 0, 0, 0, 0, 0, 0, 0
"NODE_10001066", 4.16, 1,    2442.41,   -1.3,    1.0169, 0, 0, 0, 0, 0, 0, 0, 0
"NODE_272480", 4.16, 1,     2440.1,   -1.3,     1.016, 0, 0, 0, 0, 0, 0, 0, 0
"NODE_272476", 4.16, 1,    2439.59,   -1.3,    1.0157, 0, 0, 0, 0, 0, 0, 0, 0
"NODE_10026625", 4.16, 1,     2443.9,   -1.3,    1.0175, 0, 0, 0, 0, 0, 0, 0, 0
"DEV_64608", 4.16, 3,    2407.51,  117.8,    1.0024, 0, 0, 0, 0, 0, 0, 0, 0
"NODE_229019", 4.16, 1,    2485.83,   -0.6,     1.035, 2,    2397.61, -120.9,   0.99826, 3,    2407.63,  117.8,    1.0024
"NODE_10002228", 4.16, 1,    2484.55,   -0.6,    1.0345, 2,     2399.1, -120.9,   0.99888, 3,    2410.76,  117.8,    1.0037
"NODE_30086164", 4.16, 1,    2486.96,   -0.6,    1.0355, 2,    2393.83, -120.9,   0.99669, 3,    2403.47,  117.7,    1.0007
"NODE_30086165", 4.16, 1,    2487.02,   -0.6,    1.0355, 2,    2395.59, -120.9,   0.99742, 3,    2404.92,  117.7,    1.0013
"NODE_30041579", 4.16, 1,    2487.03,   -0.6,    1.0355, 2,    2395.43, -120.9,   0.99736, 3,    2404.76,  117.7,    1.0012
"DEV_64617", 4.16, 2,    2365.93, -121.2,   0.98508, 0, 0, 0, 0, 0, 0, 0, 0
"PRI_64629", 4.16, 2,    2365.92, -121.2,   0.98507, 0, 0, 0, 0, 0, 0, 0, 0
"DEV_65257", 4.16, 1,    2482.55,   -0.4,    1.0336, 0, 0, 0, 0, 0, 0, 0, 0
"DEV_65159", 4.16, 3,    2492.88,  119.4,    1.0379, 0, 0, 0, 0, 0, 0, 0, 0
"NODE_303489", 4.16, 3,    2493.05,  119.4,     1.038, 0, 0, 0, 0, 0, 0, 0, 0
"NODE_244940", 4.16, 1,    2495.41,   -0.2,     1.039, 0, 0, 0, 0, 0, 0, 0, 0
"NODE_303493", 4.16, 1,    2487.65,   -0.3,    1.0358, 0, 0, 0, 0, 0, 0, 0, 0
"DEV_64856", 4.16, 2,    2411.36, -121.0,     1.004, 0, 0, 0, 0, 0, 0, 0, 0
"NODE_244847", 4.16, 1,    2479.73,   -0.4,    1.0325, 2,    2408.02, -121.0,    1.0026, 3,    2425.62,  118.1,    1.0099
"NODE_302583", 4.16, 1,    2479.33,   -0.4,    1.0323, 2,    2411.31, -121.0,     1.004, 3,    2429.55,  118.2,    1.0116
"NODE_30135730", 4.16, 2,    2424.94, -120.8,    1.0096, 0, 0, 0, 0, 0, 0, 0, 0
"NODE_302511", 4.16, 2,    2444.66, -120.7,    1.0179, 0, 0, 0, 0, 0, 0, 0, 0
"NODE_302947", 4.16, 2,    2466.97, -120.6,    1.0271, 0, 0, 0, 0, 0, 0, 0, 0
"NODE_244946", 4.16, 1,    2495.82,   -0.2,    1.0392, 0, 0, 0, 0, 0, 0, 0, 0
"NODE_302949", 4.16, 1,    2498.09,   -0.2,    1.0401, 0, 0, 0, 0, 0, 0, 0, 0
"NODE_302592", 4.16, 1,    2478.98,   -0.4,    1.0321, 2,    2413.97, -121.0,    1.0051, 3,     2433.6,  118.3,    1.0132
"NODE_302594", 4.16, 3,    2433.62,  118.3,    1.0133, 0, 0, 0, 0, 0, 0, 0, 0
"NODE_244842", 4.16, 1,    2479.82,   -0.4,    1.0325, 2,     2406.9, -121.0,    1.0021, 3,    2424.13,  118.1,    1.0093
"NODE_244863", 4.16, 1,    2482.72,   -0.4,    1.0337, 0, 0, 0, 0, 0, 0, 0, 0
"NODE_303450", 4.16, 2,    2416.95, -120.9,    1.0063, 0, 0, 0, 0, 0, 0, 0, 0
"NODE_10001075", 4.16, 1,    2478.73,   -0.4,     1.032, 2,    2414.57, -121.0,    1.0053, 3,    2434.64,  118.3,    1.0137
"NODE_11014095", 4.16, 3,    2492.95,  119.4,     1.038, 0, 0, 0, 0, 0, 0, 0, 0
"NODE_11014087", 4.16, 3,    2492.97,  119.4,     1.038, 0, 0, 0, 0, 0, 0, 0, 0
"NODE_30019514", 4.16, 3,    2493.11,  119.4,     1.038, 0, 0, 0, 0, 0, 0, 0, 0
"NODE_30019518", 4.16, 3,    2493.05,  119.4,     1.038, 0, 0, 0, 0, 0, 0, 0, 0
"NODE_30034605", 4.16, 1,    2482.31,   -0.4,    1.0335, 0, 0, 0, 0, 0, 0, 0, 0
"NODE_30043141", 4.16, 1,    2480.05,   -0.5,    1.0326, 2,    2404.58, -121.0,    1.0012, 3,    2421.06,  118.0,     1.008
"DEV_51197855", 4.16, 1,       2480,   -0.5,    1.0326, 2,    2404.64, -121.0,    1.0012, 3,    2421.17,  118.0,    1.0081
"NODE_30043144", 4.16, 1,    2479.99,   -0.5,    1.0326, 2,    2404.74, -121.0,    1.0012, 3,    2421.29,  118.0,    1.0081
"NODE_30135728", 4.16, 1,    2482.26,   -0.4,    1.0335, 0, 0, 0, 0, 0, 0, 0, 0
"NODE_30105653", 4.16, 2,    2413.21, -121.0,    1.0048, 0, 0, 0, 0, 0, 0, 0, 0
"NODE_302602", 4.16, 3,    2433.96,  118.3,    1.0134, 0, 0, 0, 0, 0, 0, 0, 0
